&time_control
run_days                      = 46,
run_hours                     = 0,
run_minutes                   = 0,
run_seconds                   = 0,
start_year                    = 2004, 2004, 2004, 
start_month                   = 12, 12, 12, 
start_day                     = 27, 27, 27, 
start_hour                    = 00, 00, 00, 
start_minute                  = 00, 00, 00, 
start_second                  = 00, 00, 00, 
end_year                      = 2005, 2005, 2005, 
end_month                     = 02, 02, 02, 
end_day                       = 16, 16, 16, 
end_hour                      = 00, 00, 00, 
end_minute                    = 00, 00, 00, 
end_second                    = 00, 00, 00, 
interval_seconds              = 21600,
input_from_file               = .true., .true., .true., 
history_interval_h            = 1, 1, 1, 
auxhist1_interval             = 60, 60, 60, 
frames_per_outfile            = 24, 24, 24, 
frames_per_auxhist1           = 24, 24, 24, 
restart                       = .false.,
restart_interval_h            = 1104,
io_form_history               = 2,
io_form_auxhist1              = 0,
io_form_restart               = 2,
io_form_input                 = 2,
io_form_boundary              = 2,
io_form_auxinput5             = 2,
io_form_auxinput6             = 0,
io_form_auxinput7             = 0,
io_form_auxinput12            = 0,
frames_per_auxinput5          = 24, 24, 24, 
auxinput5_interval_m          = 60, 60, 60, 
frames_per_auxinput7          = 1, 1, 1, 
auxinput7_interval_m          = 60, 60, 60, 
auxinput7_inname              = wrffirechemi_d<domain>_<date>,
auxinput12_inname             = wrf_chem_input_d<domain>,
nocolons                      = .true.,
debug_level                   = 0,
/

&domains
time_step                     = 72,
use_adaptive_time_step        = .false.,
time_step_fract_num           = 0,
time_step_fract_den           = 1,
max_dom                       = 3,
e_we                          = 34, 34, 34, 
e_sn                          = 34, 34, 34, 
e_vert                        = 30, 30, 30, 
p_top_requested               = 5000,
num_metgrid_levels            = 27,
num_metgrid_soil_levels       = 4,
dx                            = 9000, 3000, 1000, 
dy                            = 9000, 3000, 1000, 
grid_id                       = 1, 2, 3, 
parent_id                     = 1, 1, 2, 
i_parent_start                = 1, 11, 11, 
j_parent_start                = 1, 11, 11, 
parent_grid_ratio             = 1, 3, 3, 
parent_time_step_ratio        = 1, 3, 3, 
feedback                      = 1,
smooth_option                 = 0,
/

&physics
mp_physics                    = 3, 3, 3, 
ra_lw_physics                 = 3, 3, 3, 
ra_sw_physics                 = 3, 3, 3, 
radt                          = 9, 3, 1, 
sf_sfclay_physics             = 1, 1, 1, 
sf_surface_physics            = 2, 2, 2, 
bl_pbl_physics                = 1, 1, 1, 
bldt                          = 0, 0, 0, 
cu_physics                    = 5, 5, 5, 
cu_rad_feedback               = .true., .true., .true., 
cudt                          = 0, 0, 0, 
cu_diag                       = 1, 1, 1, 
isfflx                        = 1,
ifsnow                        = 1,
icloud                        = 1,
surface_input_source          = 1,
num_soil_layers               = 4,
sf_urban_physics              = 0, 0, 0, 
/

&fdda
grid_fdda                     = 1, 1, 1, 
gfdda_inname                  = wrffdda_d<domain>,
gfdda_interval_m              = 360, 360, 360, 
gfdda_end_h                   = 8760, 8760, 8760, 
io_form_gfdda                 = 2,
/

&dynamics
w_damping                     = 1,
diff_opt                      = 1,
km_opt                        = 4,
diff_6th_opt                  = 0, 0, 0, 
diff_6th_factor               = 0.12, 0.12, 0.12, 
base_temp                     = 290.0,
damp_opt                      = 0,
zdamp                         = 5000.0, 5000.0, 5000.0, 
dampcoef                      = 0.2, 0.2, 0.2, 
khdif                         = 0, 0, 0, 
kvdif                         = 0, 0, 0, 
non_hydrostatic               = .true., .true., .true., 
chem_adv_opt                  = 2, 2, 2, 
moist_adv_opt                 = 2, 2, 2, 
scalar_adv_opt                = 2, 2, 2, 
tke_adv_opt                   = 2, 2, 2, 
/

&bdy_control
spec_bdy_width                = 5,
spec_zone                     = 1,
relax_zone                    = 4,
specified                     = .true., .false., .false., 
nested                        = .false., .true., .true., 
/

&grib2
/

&namelist_quilt
nio_tasks_per_group           = 0,
nio_groups                    = 1,
/

&chem
kemit                         = 1,
chem_opt                      = 108, 108, 108, 
bioemdt                       = 30, 30, 30, 
photdt                        = 30, 30, 30, 
chemdt                        = 0, 0, 0, 
emiss_inpt_opt                = 1, 1, 1, 
emiss_opt                     = 3, 3, 3, 
io_style_emissions            = 2,
chem_in_opt                   = 0, 0, 0, 
phot_opt                      = 2, 2, 2, 
gas_drydep_opt                = 1, 1, 1, 
aer_drydep_opt                = 1, 1, 1, 
bio_emiss_opt                 = 0, 0, 0, 
dust_opt                      = 0,
dmsemis_opt                   = 0,
seas_opt                      = 0,
gas_bc_opt                    = 1, 1, 1, 
gas_ic_opt                    = 1, 1, 1, 
aer_bc_opt                    = 1, 1, 1, 
aer_ic_opt                    = 1, 1, 1, 
gaschem_onoff                 = 0, 0, 0, 
aerchem_onoff                 = 0, 0, 0, 
wetscav_onoff                 = 0, 0, 0, 
cldchem_onoff                 = 0, 0, 0, 
vertmix_onoff                 = 1, 1, 1, 
chem_conv_tr                  = 1, 1, 1, 
biomass_burn_opt              = 0, 0, 0, 
plumerisefire_frq             = 30, 30, 30, 
have_bcs_chem                 = .true., .true., .true., 
aer_ra_feedback               = 0, 0, 0, 
/

