&share
wrf_core                      = 'ARW',
max_dom                       = 3,
start_date                    = '2004-12-25_00:00:00', '2004-12-25_00:00:00', '2004-12-25_00:00:00', 
end_date                      = '2006-01-01_00:00:00', '2006-01-01_00:00:00', '2006-01-01_00:00:00', 
interval_seconds              = 21600,
io_form_geogrid               = 2,
/

&geogrid
parent_id                     = 1, 1, 2, 
parent_grid_ratio             = 1, 3, 3, 
i_parent_start                = 1, 11, 11, 
j_parent_start                = 1, 11, 11, 
e_we                          = 34, 34, 34, 
e_sn                          = 34, 34, 34, 
geog_data_res                 = '2m', '2m', '2m', 
dx                            = 9000,
dy                            = 9000,
map_proj                      = 'lambert',
ref_lat                       = 34.11,
ref_lon                       = -118.18,
truelat1                      = 26.0,
truelat2                      = 39.0,
stand_lon                     = -118.18,
geog_data_path                = '/home/marshall/tessumcm/WRFinputs/geogV3.4',
/

&ungrib
out_format                    = 'WPS',
prefix                        = 'FILE',
/

&metgrid
fg_name                       = 'FILE',
io_form_metgrid               = 2,
/

